LAMMPS (11 May 2016)
# Big colloid particles and small LJ particles

units		si
atom_style	atomic
dimension	2

lattice		sq 10e-6 # lattice & latice constant
Lattice spacing in x,y,z = 1e-05 1e-05 1e-05
region		box block 0 5 0 5 -0.5 0.5
create_box	1 box
Created orthogonal box = (0 0 -5e-06) to (5e-05 5e-05 5e-06)
create_atoms	1 box
Created 25 atoms

#set		group all type/fraction 2 0.96 23984

#set		type 1 mass 1e-9
#set		type 2 mass 1
mass 1 1e-9

velocity	all create 300 87287 loop geom

# multi neighbor and comm for efficiency

neighbor	5e-6 bin
#neigh_modify	delay 0
#comm_modify     mode multi

# colloid potential

pair_style	dlvo 2.5e-6# cutoff
pair_coeff	1 1  1.3e-20 2.7e-6 8.15e-12 104022291 0.0828
# hamaker radius psi debyeinv springk
dielectric 	80
pair_modify	shift yes

#fix		1 all npt temp 300 300 1 iso 0.002 0.002 10 #mtk no pchain 0 tchain 1
#fix		1 all nve
#fix     1 all langevin 300.00 3.00 1e-1 87287  # start_temp final_temp time_constant seed
fix     1 all nvt temp 300.00 3.00 1e-1  # start_temp final_temp time_constant
fix		2 all enforce2d

dump		1 all custom 1000 dump.dlvo.lammpstrj id x y z vx vy vz fx fy fz
#dump_modify 	1 scale no

#dump		2 all image 1000 image.*.jpg type type #		zoom 1.5 center d 0.5 0.5 0.5
#dump_modify	2 pad 5 adiam 1 5.0 adiam 2 1.5

#dump		3 all movie 1000 movie.mpg type type #		zoom 1.5 center d 0.5 0.5 0.5
#dump_modify	3 pad 5 adiam 1 5.0 adiam 2 1.5

thermo_style	custom step temp epair etotal press vol
thermo		10000

timestep	1e-5

run		1000000
  1 neighbor list requests
  update every 1 steps, delay 10 steps, check yes
Step Temp E_pair TotEng Press Volume
0          300            0 9.9406829e-20 3.9762732e-11      2.5e-09
Averages over the last 51 of 101 rows, steps 500000 to 1000000:
Temp E_pair TotEng Press Volume
77.9226 6.83021e-21 3.26503e-20 3.00998e-11 2.5e-09
Loop time of 3.76348 on 1 procs for 1000000 steps with 25 atoms
